OPT_V10/Two_days_MYC3_SOS/powerflow_results_t27.txt
Pandapower Network Debug Info
==================================================

BUS:
       vm_pu  va_degree      p_mw    q_mvar
0   0.992492   0.115990  0.001030  0.000869
1   0.987723   0.184084  0.001653  0.001625
2   0.983109   0.271262  0.002326  0.003447
3   0.988404   0.203439  0.002675  0.004328
4   0.999893   0.000617  0.008681  0.010143
5   0.999881   0.000613  0.009549  0.007584
6   0.999872   0.000603  0.012251  0.009189
7   0.999933   0.000478  0.000000  0.000000
8   0.999933   0.000484  0.000000  0.000000
9   1.000000   0.000000 -0.038328 -0.042296
10  1.000000   0.000006  0.000000  0.000000
--------------------------------------------------

LINE:
   p_from_mw  q_from_mvar   p_to_mw  q_to_mvar         pl_mw       ql_mvar  i_from_ka   i_to_ka      i_ka  vm_from_pu  va_from_degree  vm_to_pu  va_to_degree  loading_percent
0   0.038318     0.038296 -0.038315  -0.038294  2.870708e-06  2.238338e-06   0.002085  0.002085  0.002085    1.000000        0.000006  0.999933      0.000478         0.906600
1   0.030483     0.026918 -0.030482  -0.026917  1.278999e-06  9.972569e-07   0.001565  0.001565  0.001565    0.999933        0.000478  0.999893      0.000617         0.680591
2   0.007822     0.010377 -0.007743  -0.010315  7.899132e-05  6.159084e-05   0.018758  0.018758  0.018758    0.999933        0.000484  0.992492      0.115990         8.155451
3  -0.021800    -0.016773  0.021800   0.016773  2.617029e-07  2.040541e-07   0.001059  0.001059  0.001059    0.999881        0.000613  0.999893      0.000617         0.460360
4  -0.012251    -0.009189  0.012251   0.009189  1.147259e-07  8.945365e-08   0.000590  0.000590  0.000590    0.999872        0.000603  0.999881      0.000613         0.256311
5  -0.003995    -0.005084  0.004021   0.005104  2.535597e-05  1.977047e-05   0.009449  0.009449  0.009449    0.987723        0.184084  0.992492      0.115990         4.108360
6  -0.002675    -0.004328  0.002692   0.004342  1.769096e-05  1.379394e-05   0.007430  0.007430  0.007430    0.988404        0.203439  0.992492      0.115990         3.230291
7  -0.002326    -0.003447  0.002342   0.003460  1.618377e-05  1.261875e-05   0.006105  0.006105  0.006105    0.983109        0.271262  0.987723      0.184084         2.654389
--------------------------------------------------

TRAFO:
    p_hv_mw  q_hv_mvar   p_lv_mw  q_lv_mvar    pl_mw  ql_mvar   i_hv_ka   i_lv_ka  vm_hv_pu  va_hv_degree  vm_lv_pu  va_lv_degree  loading_percent
0  0.007832   0.011376 -0.007822  -0.010377  0.00001    0.001  0.000532  0.018758  0.999933      0.000478  0.999933      0.000484         0.138128
1  0.038328   0.042296 -0.038318  -0.038296  0.00001    0.004  0.000471  0.002085  1.000000      0.000000  1.000000      0.000006         0.142698
--------------------------------------------------
